data_RWY-6Al-H
_audit_creation_date              2023-03-02
_audit_creation_method            'Materials Studio'
_symmetry_space_group_name_H-M    'P1'
_symmetry_Int_Tables_number       1
_symmetry_cell_setting            triclinic
loop_
_symmetry_equiv_pos_as_xyz
  x,y,z
_cell_length_a                    18.5017
_cell_length_b                    18.5017
_cell_length_c                    18.5017
_cell_angle_alpha                 90.0000
_cell_angle_beta                  90.0000
_cell_angle_gamma                 90.0000
loop_
_atom_site_label
_atom_site_type_symbol
_atom_site_fract_x
_atom_site_fract_y
_atom_site_fract_z
_atom_site_U_iso_or_equiv
_atom_site_adp_type
_atom_site_occupancy
Si1    Si    0.57574   0.69648   0.00000   0.00000  Uiso   1.00
Si2    Si    0.07574   0.19648   0.50000   0.00000  Uiso   1.00
Si3    Si    0.42426   0.30352   0.00000   0.00000  Uiso   1.00
Si4    Si    0.92426   0.80352   0.50000   0.00000  Uiso   1.00
Si5    Si    0.92426   0.19648   0.50000   0.00000  Uiso   1.00
Si6    Si    0.57574   0.30352   0.00000   0.00000  Uiso   1.00
Si7    Si    0.50000   0.07574   0.19648   0.00000  Uiso   1.00
Si8    Si    0.00000   0.42426   0.30352   0.00000  Uiso   1.00
Si9    Si    0.00000   0.42426   0.69648   0.00000  Uiso   1.00
Si10   Si    0.50000   0.92426   0.19648   0.00000  Uiso   1.00
Si11   Si    0.00000   0.57574   0.30352   0.00000  Uiso   1.00
Si12   Si    0.50000   0.07574   0.80352   0.00000  Uiso   1.00
Si13   Si    0.69648   0.00000   0.57574   0.00000  Uiso   1.00
Si14   Si    0.19648   0.50000   0.07574   0.00000  Uiso   1.00
Si15   Si    0.30352   0.00000   0.42426   0.00000  Uiso   1.00
Si16   Si    0.80352   0.50000   0.92426   0.00000  Uiso   1.00
Si17   Si    0.69648   0.00000   0.42426   0.00000  Uiso   1.00
Si18   Si    0.80352   0.50000   0.07574   0.00000  Uiso   1.00
Si19   Si    0.69648   0.57574   0.00000   0.00000  Uiso   1.00
Si20   Si    0.19648   0.07574   0.50000   0.00000  Uiso   1.00
Si21   Si    0.30352   0.42426   0.00000   0.00000  Uiso   1.00
Si22   Si    0.80352   0.92426   0.50000   0.00000  Uiso   1.00
Si23   Si    0.69648   0.42426   0.00000   0.00000  Uiso   1.00
Si24   Si    0.19648   0.92426   0.50000   0.00000  Uiso   1.00
Si25   Si    0.30352   0.57574   0.00000   0.00000  Uiso   1.00
Si26   Si    0.80352   0.07574   0.50000   0.00000  Uiso   1.00
Si27   Si    0.57574   0.00000   0.30352   0.00000  Uiso   1.00
Si28   Si    0.07574   0.50000   0.80352   0.00000  Uiso   1.00
Si29   Si    0.42426   0.00000   0.69648   0.00000  Uiso   1.00
Si30   Si    0.92426   0.50000   0.19648   0.00000  Uiso   1.00
Si31   Si    0.42426   0.00000   0.30352   0.00000  Uiso   1.00
Si32   Si    0.92426   0.50000   0.80352   0.00000  Uiso   1.00
Si33   Si    0.57574   0.00000   0.69648   0.00000  Uiso   1.00
Si34   Si    0.07574   0.50000   0.19648   0.00000  Uiso   1.00
Si35   Si    0.00000   0.69648   0.42426   0.00000  Uiso   1.00
Si36   Si    0.50000   0.19648   0.92426   0.00000  Uiso   1.00
Si37   Si    0.00000   0.30352   0.57574   0.00000  Uiso   1.00
Si38   Si    0.50000   0.80352   0.07574   0.00000  Uiso   1.00
Si39   Si    0.00000   0.69648   0.57574   0.00000  Uiso   1.00
Si40   Si    0.50000   0.19648   0.07574   0.00000  Uiso   1.00
Si41   Si    0.00000   0.30352   0.42426   0.00000  Uiso   1.00
Si42   Si    0.50000   0.80352   0.92426   0.00000  Uiso   1.00
Al1    Al    0.42988   0.69884   0.00416   0.00000  Uiso   1.00
Al2    Al    0.07017   0.80065   0.49804   0.00000  Uiso   1.00
Al3    Al    0.99922   0.57148   0.69966   0.00000  Uiso   1.00
Al4    Al    0.51465   0.92395   0.81090   0.00000  Uiso   1.00
Al5    Al    0.19963   0.49898   0.92854   0.00000  Uiso   1.00
Al6    Al    0.31071   0.01360   0.57780   0.00000  Uiso   1.00
O1     O     0.57195   0.75000   0.07195   0.00000  Uiso   1.00
O2     O     0.42805   0.25000   0.07195   0.00000  Uiso   1.00
O3     O     0.42676   0.75296   0.92683   0.00000  Uiso   1.00
O4     O     0.57195   0.25000   0.92805   0.00000  Uiso   1.00
O5     O     0.07819   0.57306   0.75421   0.00000  Uiso   1.00
O6     O     0.07195   0.42805   0.25000   0.00000  Uiso   1.00
O7     O     0.92805   0.42805   0.75000   0.00000  Uiso   1.00
O8     O     0.92805   0.57195   0.25000   0.00000  Uiso   1.00
O9     O     0.75000   0.07195   0.57195   0.00000  Uiso   1.00
O10    O     0.25000   0.07195   0.42805   0.00000  Uiso   1.00
O11    O     0.75000   0.92805   0.42805   0.00000  Uiso   1.00
O12    O     0.24650   0.92526   0.57693   0.00000  Uiso   1.00
O13    O     0.75000   0.57195   0.92805   0.00000  Uiso   1.00
O14    O     0.25440   0.42348   0.92743   0.00000  Uiso   1.00
O15    O     0.75000   0.42805   0.07195   0.00000  Uiso   1.00
O16    O     0.25000   0.57195   0.07195   0.00000  Uiso   1.00
O17    O     0.57195   0.07195   0.25000   0.00000  Uiso   1.00
O18    O     0.42805   0.07195   0.75000   0.00000  Uiso   1.00
O19    O     0.42805   0.92805   0.25000   0.00000  Uiso   1.00
O20    O     0.57889   0.92760   0.74423   0.00000  Uiso   1.00
O21    O     0.07300   0.74552   0.42353   0.00000  Uiso   1.00
O22    O     0.07195   0.25000   0.57195   0.00000  Uiso   1.00
O23    O     0.92805   0.75000   0.57195   0.00000  Uiso   1.00
O24    O     0.92805   0.25000   0.42805   0.00000  Uiso   1.00
O25    O     0.42805   0.25000   0.92805   0.00000  Uiso   1.00
O26    O     0.57195   0.75000   0.92805   0.00000  Uiso   1.00
O27    O     0.57195   0.25000   0.07195   0.00000  Uiso   1.00
O28    O     0.42807   0.75338   0.08011   0.00000  Uiso   1.00
O29    O     0.92805   0.42805   0.25000   0.00000  Uiso   1.00
O30    O     0.92407   0.57274   0.75456   0.00000  Uiso   1.00
O31    O     0.07195   0.57195   0.25000   0.00000  Uiso   1.00
O32    O     0.07195   0.42805   0.75000   0.00000  Uiso   1.00
O33    O     0.25000   0.92805   0.42805   0.00000  Uiso   1.00
O34    O     0.75000   0.92805   0.57195   0.00000  Uiso   1.00
O35    O     0.24351   0.07647   0.57346   0.00000  Uiso   1.00
O36    O     0.75000   0.07195   0.42805   0.00000  Uiso   1.00
O37    O     0.25000   0.42805   0.07195   0.00000  Uiso   1.00
O38    O     0.75000   0.57195   0.07195   0.00000  Uiso   1.00
O39    O     0.25418   0.57766   0.92692   0.00000  Uiso   1.00
O40    O     0.75000   0.42805   0.92805   0.00000  Uiso   1.00
O41    O     0.42937   0.92415   0.74870   0.00000  Uiso   1.00
O42    O     0.57195   0.92805   0.25000   0.00000  Uiso   1.00
O43    O     0.57195   0.07195   0.75000   0.00000  Uiso   1.00
O44    O     0.42805   0.07195   0.25000   0.00000  Uiso   1.00
O45    O     0.92805   0.25000   0.57195   0.00000  Uiso   1.00
O46    O     0.92805   0.75000   0.42805   0.00000  Uiso   1.00
O47    O     0.07195   0.25000   0.42805   0.00000  Uiso   1.00
O48    O     0.07332   0.74635   0.57724   0.00000  Uiso   1.00
O49    O     0.64789   0.64789   0.00000   0.00000  Uiso   1.00
O50    O     0.14789   0.14789   0.50000   0.00000  Uiso   1.00
O51    O     0.35211   0.35211   0.00000   0.00000  Uiso   1.00
O52    O     0.85211   0.85211   0.50000   0.00000  Uiso   1.00
O53    O     0.34267   0.65635   0.99498   0.00000  Uiso   1.00
O54    O     0.85211   0.14789   0.50000   0.00000  Uiso   1.00
O55    O     0.64789   0.35211   0.00000   0.00000  Uiso   1.00
O56    O     0.15804   0.84372   0.50985   0.00000  Uiso   1.00
O57    O     0.00692   0.65839   0.65708   0.00000  Uiso   1.00
O58    O     0.50000   0.14789   0.14789   0.00000  Uiso   1.00
O59    O     0.00000   0.35211   0.35211   0.00000  Uiso   1.00
O60    O     0.50056   0.84512   0.85027   0.00000  Uiso   1.00
O61    O     0.00000   0.35211   0.64789   0.00000  Uiso   1.00
O62    O     0.50000   0.85211   0.14789   0.00000  Uiso   1.00
O63    O     0.00000   0.64789   0.35211   0.00000  Uiso   1.00
O64    O     0.50000   0.14789   0.85211   0.00000  Uiso   1.00
O65    O     0.64789   0.00000   0.64789   0.00000  Uiso   1.00
O66    O     0.14789   0.50000   0.14789   0.00000  Uiso   1.00
O67    O     0.35211   0.00000   0.35211   0.00000  Uiso   1.00
O68    O     0.85211   0.50000   0.85211   0.00000  Uiso   1.00
O69    O     0.64789   0.00000   0.35211   0.00000  Uiso   1.00
O70    O     0.15727   0.50604   0.84167   0.00000  Uiso   1.00
O71    O     0.34940   0.99173   0.65670   0.00000  Uiso   1.00
O72    O     0.85211   0.50000   0.14789   0.00000  Uiso   1.00
O73    O     0.50517   0.64330   0.00164   0.00000  Uiso   1.00
O74    O     0.00000   0.14808   0.50000   0.00000  Uiso   1.00
O75    O     0.50000   0.35192   0.00000   0.00000  Uiso   1.00
O76    O     0.99560   0.85582   0.50130   0.00000  Uiso   1.00
O77    O     0.00165   0.49586   0.64488   0.00000  Uiso   1.00
O78    O     0.50000   0.00000   0.14808   0.00000  Uiso   1.00
O79    O     0.00000   0.50000   0.35192   0.00000  Uiso   1.00
O80    O     0.49989   0.00507   0.85495   0.00000  Uiso   1.00
O81    O     0.64808   0.00000   0.50000   0.00000  Uiso   1.00
O82    O     0.14481   0.50116   0.00421   0.00000  Uiso   1.00
O83    O     0.35319   0.99764   0.49658   0.00000  Uiso   1.00
O84    O     0.85192   0.50000   0.00000   0.00000  Uiso   1.00
O85    O     0.64808   0.50000   0.00000   0.00000  Uiso   1.00
O86    O     0.14808   0.00000   0.50000   0.00000  Uiso   1.00
O87    O     0.35192   0.50000   0.00000   0.00000  Uiso   1.00
O88    O     0.85192   0.00000   0.50000   0.00000  Uiso   1.00
O89    O     0.50000   0.00000   0.35192   0.00000  Uiso   1.00
O90    O     0.00000   0.50000   0.85192   0.00000  Uiso   1.00
O91    O     0.50000   0.00000   0.64808   0.00000  Uiso   1.00
O92    O     0.00000   0.50000   0.14808   0.00000  Uiso   1.00
O93    O     0.00000   0.64808   0.50000   0.00000  Uiso   1.00
O94    O     0.50000   0.14808   0.00000   0.00000  Uiso   1.00
O95    O     0.00000   0.35192   0.50000   0.00000  Uiso   1.00
O96    O     0.50000   0.85192   0.00000   0.00000  Uiso   1.00
H1     H     0.17837   0.81406   0.54892   0.00000  Uiso   1.00
H2     H     0.31990   0.68240   0.95449   0.00000  Uiso   1.00
H3     H     0.27729   0.88457   0.59029   0.00000  Uiso   1.00
H4     H     0.38561   0.90953   0.77405   0.00000  Uiso   1.00
H5     H     0.04411   0.68600   0.68316   0.00000  Uiso   1.00
H6     H     0.18276   0.54372   0.81409   0.00000  Uiso   1.00
